tests/unit/opflow/constraint_jacobian/inequality/CICJ_unittest1.m
% Case saved by PowerWorld Simulator, version 22, build date March 23, 2021
function mpc = CIC_unittest1
mpc.version = '2';
mpc.baseMVA =  100.00;

%% bus data 
mpc.bus = [
1	1	0.00	0.00	0.00	0.00	1	2.0000000	0.000000	138.00	1	1.100	0.900
2	1	0.00	0.00	0.25	-0.05	1	2.0000000	0.000000	138.00	1	1.100	0.900
3	3	0.00	0.00	0.00	0.00	1	0.5000000	30.000000	13.80	1	1.100	0.900
4	1	-3.40	8.80	0.00	0.00	1	2.0000000	0.000000	138.00	1	1.100	0.900
5	1	0.00	0.00	0.00	0.00	1	2.0000000	0.000000	138.00	1	1.100	0.900
];

%% generator data 
mpc.gen = [
3	1.60	-2.20	197.80	-202.20	0.5000	100.00	1	1.60	1.60	0.00	0.00	0.00	0.00	0.00	0.00	0	0	0	0	10.0000
];

%% generator cost data
mpc.gencost = [
2	0	0	4	0.0000	0.010	0.100	8.00
];

%% branch data
mpc.branch = [
1	2	2.000000	1.000000	1.20000	0.00	0.00	0.00	1.00000	0.000	1	0.00	0.00	0.00	-240.00	0.00	-240.00
2	3	2.000000	1.000000	1.20000	0.00	0.00	0.00	2.00000	60.000	1	0.00	0.00	0.00	-140.00	200.00	-240.00
2	4	2.000000	1.000000	1.20000	0.00	0.00	0.00	1.00000	0.000	1	0.00	0.00	0.00	-240.00	0.00	-240.00
4	5	2.000000	1.000000	1.20000	0.00	0.00	0.00	1.00000	0.000	1	0.00	0.00	0.00	-240.00	0.00	-240.00
];

%% bus names
mpc.bus_name = {
'1';
'2';
'3';
'4';
'5';
};

%% Generator Unit Types
mpc.gentype = {
'UN';
};

%% Generator Fuel Types
mpc.genfuel = {
'unknown';
};
